data_image0
_chemical_formula_structural       H16C9O194MgAlSi95Cl3Zn
_chemical_formula_sum              "H16 C9 O194 Mg1 Al1 Si95 Cl3 Zn1"
_cell_length_a       20.07
_cell_length_b       19.92
_cell_length_c       13.42
_cell_angle_alpha    90.0
_cell_angle_beta     90.0
_cell_angle_gamma    90.0

_space_group_name_H-M_alt    "P 1"
_space_group_IT_number       1

loop_
  _space_group_symop_operation_xyz
  'x, y, z'

loop_
  _atom_site_type_symbol
  _atom_site_label
  _atom_site_symmetry_multiplicity
  _atom_site_fract_x
  _atom_site_fract_y
  _atom_site_fract_z
  _atom_site_occupancy
  H   H1        1.0  0.207534660959302  0.5130935482337978  0.6774644600470768  1.0000
  H   H2        1.0  0.16868132971317776  0.500012719271527  0.5745582084510645  1.0000
  H   H3        1.0  0.3711129487195781  0.5736231878233016  0.5579790059417165  1.0000
  H   H4        1.0  0.5625307019341731  0.3899776105721627  0.31311438801678665  1.0000
  H   H5        1.0  0.6254292918024051  0.4399260394078722  0.4608294147060193  1.0000
  H   H6        1.0  0.6156999181101579  0.5641023799693637  0.4565740465527948  1.0000
  H   H7        1.0  0.55933322277301  0.6618941521258457  0.41289010041953356  1.0000
  H   H8        1.0  0.5575627403970467  0.5493329760353169  0.645780586301793  1.0000
  H   H9        1.0  0.4803736451994364  0.5123488724977676  0.5995290204340602  1.0000
  H   H10       1.0  0.543112924071002  0.45994661963840766  0.6609536834049473  1.0000
  H   H11       1.0  0.4183892533540835  0.6556543194061704  0.3508829032230539  1.0000
  H   H12       1.0  0.4663882137692521  0.6572611656050323  0.2433878215305933  1.0000
  H   H13       1.0  0.472735341325596  0.7256086454497049  0.330096870868521  1.0000
  H   H14       1.0  0.5180815608279677  0.3787680751264599  0.420098107608738  1.0000
  H   H15       1.0  0.4413089756057586  0.4276933474786307  0.2875404032395488  1.0000
  H   H16       1.0  0.43517290103725004  0.5504143638625195  0.2886545474307551  1.0000
  C   C1        1.0  0.46762087554855664  0.6709647799055651  0.32296474964234273  1.0000
  C   C2        1.0  0.48014571009288964  0.4566000203210891  0.3238587295052682  1.0000
  C   C3        1.0  0.4760695932292744  0.5239250879849333  0.32462602891114123  1.0000
  C   C4        1.0  0.5360832761562292  0.4195766747090061  0.3706706939115839  1.0000
  C   C5        1.0  0.5246356303702073  0.5655952624976612  0.37340533412222304  1.0000
  C   C6        1.0  0.5790833146968032  0.5314057746360432  0.42120988467806864  1.0000
  C   C7        1.0  0.5843899920472267  0.46409698140954664  0.42224251209889535  1.0000
  C   C8        1.0  0.5204711592947044  0.6345846331808424  0.3738340213671825  1.0000
  C   C9        1.0  0.5206906006438949  0.5095668875386413  0.6538623431523521  1.0000
  O   O1        1.0  0.35876684422023397  0.826026729002322  0.0984293912667128  1.0000
  O   O2        1.0  0.30889342768537503  0.8249513483371544  0.27594432578224176  1.0000
  O   O3        1.0  0.2039962064920296  0.7973044247905866  0.39082152066017095  1.0000
  O   O4        1.0  0.09598632938790265  0.8209566508258692  0.28040948567243756  1.0000
  O   O5        1.0  0.10476267365408473  0.820055670445961  0.08413551215314878  1.0000
  O   O6        1.0  0.23056813185503477  0.7945108380693856  0.12467596207770758  1.0000
  O   O7        1.0  0.3624646153419374  0.5882390222972302  0.11167151221468181  1.0000
  O   O8        1.0  0.3070485569037407  0.598478248012253  0.28586163092683264  1.0000
  O   O9        1.0  0.19300161864204865  0.6055050630719326  0.3902073726236063  1.0000
  O   O10       1.0  0.08422081283700467  0.5890619949135746  0.2814863442584655  1.0000
  O   O11       1.0  0.1049161740562351  0.5915973620122534  0.0864603325754033  1.0000
  O   O12       1.0  0.23207947636402965  0.6177856431749928  0.12601628476355253  1.0000
  O   O13       1.0  0.3247735707353179  0.7081279796626465  0.17841666380380503  1.0000
  O   O14       1.0  0.08494810522448838  0.7052918701257804  0.1834844949994084  1.0000
  O   O15       1.0  0.43217166509695826  0.8913421050104997  0.96747402709095  1.0000
  O   O16       1.0  0.4155338472618146  0.7607331185274803  0.9456848290610765  1.0000
  O   O17       1.0  0.40384296566484895  0.6295357861502199  0.9308075289918459  1.0000
  O   O18       1.0  0.19769307411679882  0.893203108274794  0.9992658799330161  1.0000
  O   O19       1.0  0.18007272347342382  0.7663950637778206  0.9445351826107825  1.0000
  O   O20       1.0  0.18457889033694017  0.6332363655324094  0.9426696527308323  1.0000
  O   O21       1.0  0.9895606558660343  0.7975128681303955  0.16462298500705339  1.0000
  O   O22       1.0  0.9852214593270333  0.6169696490405447  0.16055580889018103  1.0000
  O   O23       1.0  0.13364147919154573  0.6904975954337496  0.6115803639076768  1.0000
  O   O24       1.0  0.19932869113747662  0.702569870868623  0.7778537403474832  1.0000
  O   O25       1.0  0.29576908373784216  0.7080327033306174  0.9186871241601564  1.0000
  O   O26       1.0  0.38701721283210544  0.7061065657517273  0.7729495625211594  1.0000
  O   O27       1.0  0.39441622472572413  0.6959621472520585  0.5799079352463062  1.0000
  O   O28       1.0  0.26365235994363495  0.7187546799140077  0.6072735375607762  1.0000
  O   O29       1.0  0.14083305088278886  0.935451299041371  0.6290030363405328  1.0000
  O   O30       1.0  0.19267715404021923  0.9046870014938279  0.8029640906794165  1.0000
  O   O31       1.0  0.3099700236273957  0.9041603149863685  0.8945976074037051  1.0000
  O   O32       1.0  0.4137152127525933  0.9198749475210192  0.774474933772904  1.0000
  O   O33       1.0  0.3924427845024057  0.9195962310177727  0.5775135898387761  1.0000
  O   O34       1.0  0.26978842597575814  0.9039057343095607  0.6420780279705188  1.0000
  O   O35       1.0  0.1757500325340032  0.8104505514993794  0.6647875547301305  1.0000
  O   O36       1.0  0.434872031484146  0.8096901524564388  0.6678279651690192  1.0000
  O   O37       1.0  0.07331832676984543  0.6202084239631429  0.4732923255569627  1.0000
  O   O38       1.0  0.08560696902787496  0.7518726022001174  0.4474727815114268  1.0000
  O   O39       1.0  0.11244878584446145  0.8833352813774739  0.4502735529336967  1.0000
  O   O40       1.0  0.30896562384644505  0.6267896427065383  0.47760023412683855  1.0000
  O   O41       1.0  0.3250381103968765  0.7569642277560843  0.44073204660906096  1.0000
  O   O42       1.0  0.2961688915324455  0.8873773577230033  0.4473347509543466  1.0000
  O   O43       1.0  0.505992855154162  0.6981393024912879  0.682911301962685  1.0000
  O   O44       1.0  0.5143700604860988  0.9166774873051714  0.6477775349387214  1.0000
  O   O45       1.0  0.6331381025675832  0.2901368409036724  0.6198105645247562  1.0000
  O   O46       1.0  0.6990835187478505  0.32682491112041145  0.46082650826520494  1.0000
  O   O47       1.0  0.8006473740578681  0.3216560319124363  0.3298320427862778  1.0000
  O   O48       1.0  0.8915867774925211  0.31547355288858014  0.472511828394633  1.0000
  O   O49       1.0  0.8933491554194506  0.29978794102155654  0.6679288603056056  1.0000
  O   O50       1.0  0.76285572427784  0.32011876632485703  0.6319133570020216  1.0000
  O   O51       1.0  0.6418543779497938  0.11547385655053664  0.6152151067296454  1.0000
  O   O52       1.0  0.6990094799501899  0.09676043964347841  0.44164276966705573  1.0000
  O   O53       1.0  0.814774391529143  0.10383587089351093  0.34513230025207986  1.0000
  O   O54       1.0  0.9226738291799054  0.0824403454686383  0.45695357123437014  1.0000
  O   O55       1.0  0.9019931633937691  0.08636626842782728  0.6526573284165249  1.0000
  O   O56       1.0  0.7731596889309346  0.09164959287885696  0.6048619351073706  1.0000
  O   O57       1.0  0.7243601042770397  0.2076658025326179  0.5440843941360755  1.0000
  O   O58       1.0  0.9208732276533412  0.19818623590188963  0.5497668547099339  1.0000
  O   O59       1.0  0.6020843171105245  0.3840709678107749  0.7525770294561978  1.0000
  O   O60       1.0  0.5893458469659275  0.253732467301383  0.7998234620041499  1.0000
  O   O61       1.0  0.5885669612733037  0.11909471532462648  0.7955663659632771  1.0000
  O   O62       1.0  0.8284702750638722  0.3895540348672079  0.7668971226119913  1.0000
  O   O63       1.0  0.8029287391145228  0.26192520520384227  0.8008635380072908  1.0000
  O   O64       1.0  0.8150704901342133  0.12906266454781945  0.7871243416214604  1.0000
  O   O65       1.0  0.006451686312551576  0.30039718645443  0.5731179653458088  1.0000
  O   O66       1.0  0.02139262724164126  0.11333593879585557  0.5807147780085246  1.0000
  O   O67       1.0  0.8643411380734914  0.1852402574546619  0.13623514899000203  1.0000
  O   O68       1.0  0.8061442518369702  0.18688041907674532  0.9614964423687618  1.0000
  O   O69       1.0  0.7000003955724002  0.18347377412147273  0.8393951076106873  1.0000
  O   O70       1.0  0.5991077607264891  0.18254949169642698  0.9666909584300106  1.0000
  O   O71       1.0  0.6097185997171236  0.1980614060647396  0.16349274510735756  1.0000
  O   O72       1.0  0.7359293918579564  0.21900207129940508  0.1196022031278963  1.0000
  O   O73       1.0  0.8569272536996204  0.4203265105906896  0.1470579367780993  1.0000
  O   O74       1.0  0.8236093141524179  0.416283177794034  0.9601547277710772  1.0000
  O   O75       1.0  0.7111608179715857  0.40285493977537584  0.8586364368714997  1.0000
  O   O76       1.0  0.5921836075260883  0.41369609302965155  0.94524488708019  1.0000
  O   O77       1.0  0.6066997937782793  0.4148260258366376  0.1428183755960312  1.0000
  O   O78       1.0  0.7333102553014121  0.38769740238679995  0.1006629829779728  1.0000
  O   O79       1.0  0.8312681887463587  0.3021620139623679  0.0586306229558038  1.0000
  O   O80       1.0  0.5764785191815  0.30149259324977484  0.048313510431470814  1.0000
  O   O81       1.0  0.9363909992351647  0.12161871015862809  0.268821463876952  1.0000
  O   O82       1.0  0.908556632493633  0.24880784556883  0.30115971676617853  1.0000
  O   O83       1.0  0.9191697017644433  0.38148364939162704  0.3103364148874425  1.0000
  O   O84       1.0  0.7008633876314232  0.122270857969636  0.24746567447411696  1.0000
  O   O85       1.0  0.6900788090433182  0.2504504208719581  0.30040159229954827  1.0000
  O   O86       1.0  0.6878363548893504  0.38503371321958624  0.2889373735241412  1.0000
  O   O87       1.0  0.4922144142311479  0.19961593649108145  0.08189045209077415  1.0000
  O   O88       1.0  0.4880467374499281  0.4012217797953273  0.06553838898353635  1.0000
  O   O89       1.0  0.6275863147698719  0.7201252493491895  0.6208343421506175  1.0000
  O   O90       1.0  0.6980385579710391  0.6724800591924439  0.47131793153657475  1.0000
  O   O91       1.0  0.7984546817818248  0.689182415013256  0.3407646762503727  1.0000
  O   O92       1.0  0.8896232159231775  0.6874135134541219  0.4845601739262654  1.0000
  O   O93       1.0  0.8889656346556946  0.7204246234169366  0.6758523319830277  1.0000
  O   O94       1.0  0.7582142994534885  0.698675804048416  0.6437281548139053  1.0000
  O   O95       1.0  0.6399570538920528  0.8834821518357144  0.6275547999321545  1.0000
  O   O96       1.0  0.7016591238706221  0.9226960096915533  0.46340975132448  1.0000
  O   O97       1.0  0.8123652554132447  0.9007260447761111  0.35942014436088654  1.0000
  O   O98       1.0  0.9144364343597621  0.932671120857756  0.47750330794922236  1.0000
  O   O99       1.0  0.9003616137670428  0.9078205925385464  0.6709585225444109  1.0000
  O   O100      1.0  0.7719020246349176  0.8992095436298367  0.6282675819282659  1.0000
  O   O101      1.0  0.7163343384073856  0.7986039653819142  0.529578320470159  1.0000
  O   O102      1.0  0.925550315377843  0.8086787291360444  0.53996007156496  1.0000
  O   O103      1.0  0.6038650293151304  0.6277253847648421  0.757882693802344  1.0000
  O   O104      1.0  0.5937367036909871  0.7565492906841597  0.807550768236723  1.0000
  O   O105      1.0  0.5877003166961864  0.8900767240450257  0.8090242606848056  1.0000
  O   O106      1.0  0.8263226262582538  0.6257112806180275  0.7707323081453148  1.0000
  O   O107      1.0  0.8010262931211102  0.7513396107358029  0.8155307247070204  1.0000
  O   O108      1.0  0.8149798580571196  0.8845018219717399  0.8160198835241648  1.0000
  O   O109      1.0  0.0036385565570209964  0.7035015472639885  0.5855018959781474  1.0000
  O   O110      1.0  0.018514910847907896  0.8961794689184225  0.5913046829805281  1.0000
  O   O111      1.0  0.8607966561739173  0.8214954395865403  0.16156131520863143  1.0000
  O   O112      1.0  0.8059933023795074  0.8206388468936512  0.9835041798076744  1.0000
  O   O113      1.0  0.6994303929680492  0.8291343737035302  0.8635045592865144  1.0000
  O   O114      1.0  0.5932590505087714  0.8250320799124033  0.9786496694539283  1.0000
  O   O115      1.0  0.6062196301249132  0.8094917414845639  0.17571448344243998  1.0000
  O   O116      1.0  0.7335169086649765  0.7876600861753694  0.1387320503240536  1.0000
  O   O117      1.0  0.8587253790630454  0.583659247025169  0.14948118737735233  1.0000
  O   O118      1.0  0.8255561534304112  0.5974276966492101  0.9630833769950454  1.0000
  O   O119      1.0  0.710557833651201  0.6082807574207233  0.8684741341573466  1.0000
  O   O120      1.0  0.5904943892002315  0.5956394124097937  0.9504039499822655  1.0000
  O   O121      1.0  0.6095220574062213  0.590033977209299  0.1476796834774698  1.0000
  O   O122      1.0  0.7348840632498543  0.6158640894765163  0.10661773973450989  1.0000
  O   O123      1.0  0.8309041538473765  0.7055055371960357  0.07738850261384388  1.0000
  O   O124      1.0  0.5760101798933561  0.7054723912363562  0.06028045119339046  1.0000
  O   O125      1.0  0.9364352269346982  0.8756703245371064  0.3012056704480527  1.0000
  O   O126      1.0  0.914885571515087  0.7452579592083061  0.30777041883234524  1.0000
  O   O127      1.0  0.9089727449508516  0.6136496558881414  0.32655398654809853  1.0000
  O   O128      1.0  0.6947057941876378  0.8772676289416221  0.2763971366139644  1.0000
  O   O129      1.0  0.6800481974731161  0.7457162881503032  0.30928936143644625  1.0000
  O   O130      1.0  0.6939909289947789  0.6124722308404641  0.29747683941450603  1.0000
  O   O131      1.0  0.4886107871233616  0.8056804385695657  0.09544968300647731  1.0000
  O   O132      1.0  0.489463725583417  0.6055507253064765  0.07958718136063331  1.0000
  O   O133      1.0  0.3626713081677931  0.17838206564553816  0.09512694132918781  1.0000
  O   O134      1.0  0.2946555358608868  0.18609052363522935  0.25796981735239016  1.0000
  O   O135      1.0  0.19953760713183705  0.19645940724810618  0.3959429369053764  1.0000
  O   O136      1.0  0.10635887622023966  0.19134858565236396  0.25317642923511313  1.0000
  O   O137      1.0  0.102597048210644  0.20058584027856868  0.05706763880259791  1.0000
  O   O138      1.0  0.2326677783361481  0.20631884371497142  0.08909174621385132  1.0000
  O   O139      1.0  0.35811577067007117  0.4138478411825559  0.07893476114119781  1.0000
  O   O140      1.0  0.3163669616706425  0.40852535458695766  0.2634154786740258  1.0000
  O   O141      1.0  0.18959155199536767  0.39509905773335374  0.36882341950097586  1.0000
  O   O142      1.0  0.08309676968748075  0.4281825250663471  0.261608924059164  1.0000
  O   O143      1.0  0.10568722788066721  0.4204387016500915  0.06476796127926696  1.0000
  O   O144      1.0  0.23004564563434435  0.39474777964940927  0.11264594447626664  1.0000
  O   O145      1.0  0.3179686596431276  0.29805139659075475  0.15439241148547847  1.0000
  O   O146      1.0  0.08561374661333185  0.3093904548566756  0.17027833131028258  1.0000
  O   O147      1.0  0.43047890129589417  0.13397469054948785  0.9380386782387468  1.0000
  O   O148      1.0  0.41001355589186395  0.2646897298679684  0.9620828586069898  1.0000
  O   O149      1.0  0.4111639090073188  0.3872439266405323  0.9009665572872596  1.0000
  O   O150      1.0  0.18291779837797245  0.13008301737066927  0.9460650370689703  1.0000
  O   O151      1.0  0.1788576656544984  0.26326793792521913  0.9275019949057137  1.0000
  O   O152      1.0  0.1943780429765866  0.395993030438853  0.9203585610543613  1.0000
  O   O153      1.0  0.9918149308801326  0.21447454480729997  0.15502923479913136  1.0000
  O   O154      1.0  0.9861841189035453  0.39567957124980535  0.1379331518395101  1.0000
  O   O155      1.0  0.1364114524546202  0.31318636960490576  0.5845174989965101  1.0000
  O   O156      1.0  0.19654496512586014  0.3250524186800311  0.7566367253039075  1.0000
  O   O157      1.0  0.29769044797404404  0.3131818614527645  0.8898586377623453  1.0000
  O   O158      1.0  0.3982757890874918  0.28408077322307135  0.7691246592425431  1.0000
  O   O159      1.0  0.39599158762417136  0.29921800563348794  0.5681566090035102  1.0000
  O   O160      1.0  0.2658625506580793  0.2857829403395862  0.5993345395425806  1.0000
  O   O161      1.0  0.15056511499259836  0.08904756377516539  0.5840525969134738  1.0000
  O   O162      1.0  0.19957352819288218  0.08407737428072769  0.7639784719620255  1.0000
  O   O163      1.0  0.30638011989200675  0.11167219521859323  0.876874602241962  1.0000
  O   O164      1.0  0.408678115242501  0.08737267259844357  0.7552511730717861  1.0000
  O   O165      1.0  0.3985440659022298  0.09109028590664432  0.5585767495941157  1.0000
  O   O166      1.0  0.27631160504551133  0.1242682868992927  0.6149772805054782  1.0000
  O   O167      1.0  0.17815707217842133  0.20310033026294985  0.6797432272778132  1.0000
  O   O168      1.0  0.45377958227831305  0.19409776804160875  0.6534174213358008  1.0000
  O   O169      1.0  0.06831198880919255  0.3792626025436184  0.4460973988170845  1.0000
  O   O170      1.0  0.08020846373736677  0.24754739680245466  0.4295720042035294  1.0000
  O   O171      1.0  0.09337090536063655  0.11633539120938066  0.41082145448854596  1.0000
  O   O172      1.0  0.31089373281859267  0.38246954684577833  0.4774276408332443  1.0000
  O   O173      1.0  0.31736764145680874  0.25505229934913276  0.4227125295931271  1.0000
  O   O174      1.0  0.3074018397336409  0.12039819697355685  0.42264404560402286  1.0000
  O   O175      1.0  0.5084473752842035  0.3142087891240474  0.6663789117059677  1.0000
  O   O176      1.0  0.516252400718358  0.0787401401105371  0.6394595532323931  1.0000
  O   O177      1.0  0.42625842168702144  0.5065045013049215  0.984243139108749  1.0000
  O   O178      1.0  0.19880282694309967  0.5102132078168109  0.01818758867355708  1.0000
  O   O179      1.0  0.2792409344216306  0.503653267730794  0.4188285376318643  1.0000
  O   O180      1.0  0.11417593835889404  0.5000834719666111  0.42285939224653113  1.0000
  O   O181      1.0  0.06849304452385335  0.0021590955952761563  0.49719575533741306  1.0000
  O   O182      1.0  0.2985374055287528  0.007154301221574736  0.5221446342865391  1.0000
  O   O183      1.0  0.2269758465391355  0.007982253319301127  0.9195286778047571  1.0000
  O   O184      1.0  0.39025446175611417  0.010447010780214927  0.91382133501696  1.0000
  O   O185      1.0  0.6115473667143859  0.0012384301953089734  0.7080972792858848  1.0000
  O   O186      1.0  0.8169156343763601  0.0025771346747636217  0.736062514990959  1.0000
  O   O187      1.0  0.7300699931044723  0.0017742905803206138  0.31050986032698913  1.0000
  O   O188      1.0  0.895239333275651  3.4780061619610336e-05  0.30957485180861716  1.0000
  O   O189      1.0  0.9423517925741068  0.5013852822595797  0.23981656335716386  1.0000
  O   O190      1.0  0.7021910252196871  0.5005970454428135  0.19609137296508544  1.0000
  O   O191      1.0  0.7921511596255362  0.5071619409386808  0.8245764720912055  1.0000
  O   O192      1.0  0.6311773888331754  0.5059582650957435  0.815404681857484  1.0000
  O   O193      1.0  0.20958889870386999  0.49153577330988235  0.6116298196678124  1.0000
  O   O194      1.0  0.3779918066760943  0.5288536046884309  0.5851372113129418  1.0000
  Mg  Mg1       1.0  0.3026531191957474  0.4675534394560347  0.5590891904667994  1.0000
  Al  Al1       1.0  0.27186609572758674  0.41963187597382456  0.3704694245932946  1.0000
  Si  Si1       1.0  0.3222966288146986  0.3056000220614906  0.518074036342502  1.0000
  Si  Si2       1.0  0.5836366293415688  0.30938937090744795  0.7110531110278464  1.0000
  Si  Si3       1.0  0.5669778444560889  0.6246530663507349  0.05824888324107943  1.0000
  Si  Si4       1.0  0.5658632237108574  0.3820483953843866  0.049601933441604344  1.0000
  Si  Si5       1.0  0.4235048871683081  0.8206157700036798  0.02673591560792821  1.0000
  Si  Si6       1.0  0.3054912276927787  0.7874960161326298  0.16856957731149524  1.0000
  Si  Si7       1.0  0.2824761650975337  0.8174296792151516  0.38941377896795293  1.0000
  Si  Si8       1.0  0.1245030114106223  0.813138239132494  0.392578090635128  1.0000
  Si  Si9       1.0  0.0689158376873927  0.785264128883247  0.17931164520777382  1.0000
  Si  Si10      1.0  0.1792473363031258  0.8181859025144582  0.03759544372853853  1.0000
  Si  Si11      1.0  0.4199922263528875  0.582516880165191  0.026846329374333334  1.0000
  Si  Si12      1.0  0.30561178046728477  0.6286255213549119  0.1732057216608211  1.0000
  Si  Si13      1.0  0.2709869188862251  0.5829823886887094  0.39137517317528797  1.0000
  Si  Si14      1.0  0.11584972791571921  0.5788680013798218  0.3906737637189167  1.0000
  Si  Si15      1.0  0.0649751477301191  0.626418702693976  0.17795690017607685  1.0000
  Si  Si16      1.0  0.18060622990964909  0.5876668104203508  0.04274806659036173  1.0000
  Si  Si17      1.0  0.07451960910175222  0.6927137717882521  0.5292481227743435  1.0000
  Si  Si18      1.0  0.1937078549335695  0.7307726372176597  0.6659947690363404  1.0000
  Si  Si19      1.0  0.21620513339710545  0.7011921290773988  0.895357366874558  1.0000
  Si  Si20      1.0  0.3742913645422041  0.7007610519096099  0.8917131787012905  1.0000
  Si  Si21      1.0  0.4311083096262858  0.7287175825678135  0.6773373385313806  1.0000
  Si  Si22      1.0  0.3212770813433552  0.7005509526908971  0.527551778145938  1.0000
  Si  Si23      1.0  0.0850766198739629  0.9285816742309234  0.541835581980579  1.0000
  Si  Si24      1.0  0.19530270746975362  0.8885429761040571  0.6848630093015532  1.0000
  Si  Si25      1.0  0.23230780359754025  0.9276804353913022  0.9028648533721445  1.0000
  Si  Si26      1.0  0.38653786153116115  0.9312943202760181  0.8866153743141367  1.0000
  Si  Si27      1.0  0.43862578962729115  0.8910815847328353  0.6680062353137398  1.0000
  Si  Si28      1.0  0.314365214792603  0.9292926781509249  0.5476124058429354  1.0000
  Si  Si29      1.0  0.7049076088703646  0.28553453805886  0.5651686880209271  1.0000
  Si  Si30      1.0  0.7204117037124972  0.320257879306409  0.3443748103725661  1.0000
  Si  Si31      1.0  0.8799116685619683  0.31643695357373525  0.35325143709007456  1.0000
  Si  Si32      1.0  0.9289969907991684  0.27827356404578263  0.5646376777878545  1.0000
  Si  Si33      1.0  0.821314078888276  0.3164352253377228  0.7155321545013927  1.0000
  Si  Si34      1.0  0.5897488832212846  0.0788128550662072  0.6897922938429949  1.0000
  Si  Si35      1.0  0.7095515664128147  0.12760356075045115  0.55233837997395  1.0000
  Si  Si36      1.0  0.7367519090785515  0.08109499558475891  0.3369235150021711  1.0000
  Si  Si37      1.0  0.8919732511335595  0.0776565201113632  0.3459187524384427  1.0000
  Si  Si38      1.0  0.941756918079699  0.12018357660352454  0.5598703745619296  1.0000
  Si  Si39      1.0  0.8262976614260575  0.07822964480468718  0.6944307684362259  1.0000
  Si  Si40      1.0  0.9251120721741867  0.19380931737554122  0.2152179665484869  1.0000
  Si  Si41      1.0  0.8092535582371254  0.22375011977312528  0.06906355430686113  1.0000
  Si  Si42      1.0  0.7803981114056341  0.19025397338794592  0.8470375665753477  1.0000
  Si  Si43      1.0  0.6194220552754888  0.1853006090638002  0.8498819302754009  1.0000
  Si  Si44      1.0  0.5694144916814922  0.2210370331288741  0.06406625529424848  1.0000
  Si  Si45      1.0  0.6848737594673173  0.1975631710361869  0.20797094890694945  1.0000
  Si  Si46      1.0  0.9263960565780756  0.42467549149834977  0.20811631184239957  1.0000
  Si  Si47      1.0  0.8111944524010899  0.3809948438671348  0.06715456255206816  1.0000
  Si  Si48      1.0  0.7882174893221643  0.42879012785446996  0.853329630673385  1.0000
  Si  Si49      1.0  0.6340805592879654  0.4265243975966552  0.8442889849141392  1.0000
  Si  Si50      1.0  0.6832365969426584  0.4223300517454375  0.18123508527811985  1.0000
  Si  Si51      1.0  0.5831796441874225  0.7021227137968238  0.7186327395600546  1.0000
  Si  Si52      1.0  0.7002210284702736  0.7226313057530841  0.5676101223382508  1.0000
  Si  Si53      1.0  0.7184803552511946  0.6803109598412008  0.3540367434869598  1.0000
  Si  Si54      1.0  0.8776125237583475  0.6842170655519557  0.3651734923220256  1.0000
  Si  Si55      1.0  0.9276983107162775  0.73002588173102  0.5709554395338756  1.0000
  Si  Si56      1.0  0.8180905249927237  0.7003806496762667  0.7249542426340477  1.0000
  Si  Si57      1.0  0.5877555723218886  0.9235604814597352  0.6981687605302475  1.0000
  Si  Si58      1.0  0.7076806879595446  0.8767879195481059  0.5631099128773494  1.0000
  Si  Si59      1.0  0.734974496668415  0.9254736398991789  0.3525288472583034  1.0000
  Si  Si60      1.0  0.8893106832446993  0.9271320044403214  0.36259548668153113  1.0000
  Si  Si61      1.0  0.9395651115382875  0.8863382624216957  0.5700679094750506  1.0000
  Si  Si62      1.0  0.8255642784342466  0.9235735006719479  0.7114771177835093  1.0000
  Si  Si63      1.0  0.9245537575612782  0.8090452032708961  0.23390011892129245  1.0000
  Si  Si64      1.0  0.8075076592040371  0.7832480421448368  0.09052645928037431  1.0000
  Si  Si65      1.0  0.7796657097296253  0.8210031161000314  0.8694522960748362  1.0000
  Si  Si66      1.0  0.6188681336919747  0.8244669647533126  0.8642986224965251  1.0000
  Si  Si67      1.0  0.5662950674664002  0.7856276761059245  0.07666633355060033  1.0000
  Si  Si68      1.0  0.6797943916661757  0.805015817433083  0.22562043672885643  1.0000
  Si  Si69      1.0  0.924446674185872  0.5791837169642647  0.21887337589018938  1.0000
  Si  Si70      1.0  0.8124093037922545  0.6261703807093452  0.074335892540855  1.0000
  Si  Si71      1.0  0.788171219793267  0.5847478692868034  0.8577344739876231  1.0000
  Si  Si72      1.0  0.6339374335984268  0.5843891930094115  0.8499118425109262  1.0000
  Si  Si73      1.0  0.6854968943819616  0.5798968147695516  0.18678100104658718  1.0000
  Si  Si74      1.0  0.4233215583787868  0.19438095137243652  0.018769100322129043  1.0000
  Si  Si75      1.0  0.30170429308245006  0.21870835299372787  0.1483465143591657  1.0000
  Si  Si76      1.0  0.27927133504052354  0.19008170800295532  0.37542335535061694  1.0000
  Si  Si77      1.0  0.12060552079946252  0.1885638540987458  0.3717156372136923  1.0000
  Si  Si78      1.0  0.0712605257043093  0.2295310454919717  0.15985792808759303  1.0000
  Si  Si79      1.0  0.17553254848302305  0.20080716168653717  0.004588061613092886  1.0000
  Si  Si80      1.0  0.42108710610820027  0.4263876172286179  0.007405326741431573  1.0000
  Si  Si81      1.0  0.3052392646257434  0.3788293811651126  0.15354490646021843  1.0000
  Si  Si82      1.0  0.1152432187266896  0.4243344867846386  0.3729316994004127  1.0000
  Si  Si83      1.0  0.06606743700010662  0.38811597143869736  0.1588268927576777  1.0000
  Si  Si84      1.0  0.18291771078916585  0.43053058800596206  0.029139351682741926  1.0000
  Si  Si85      1.0  0.0740353420580805  0.30954434841628276  0.5079185471409902  1.0000
  Si  Si86      1.0  0.19424267202816337  0.2816697801176346  0.6546367132049656  1.0000
  Si  Si87      1.0  0.21816222817143244  0.3246728994612575  0.8731727857449013  1.0000
  Si  Si88      1.0  0.3781959138332477  0.3135264909935529  0.8774245988203083  1.0000
  Si  Si89      1.0  0.4378624848751994  0.2735522338172034  0.665063202149108  1.0000
  Si  Si90      1.0  0.08343024430975304  0.08060473643014375  0.5187473600864095  1.0000
  Si  Si91      1.0  0.20089608855574084  0.12580878190669592  0.6602942574007459  1.0000
  Si  Si92      1.0  0.22967852242791362  0.08380220334068796  0.8763495888257639  1.0000
  Si  Si93      1.0  0.3837345297321132  0.08611647803953927  0.870004128136157  1.0000
  Si  Si94      1.0  0.4438020961341563  0.11361814671130625  0.6532769256704712  1.0000
  Si  Si95      1.0  0.320099968599285  0.08539346488718677  0.5300964076217198  1.0000
  Cl  Cl1       1.0  0.2785127238406829  0.5662689994584911  0.7936064573140568  1.0000
  Cl  Cl2       1.0  0.4812539189863506  0.5255304684996686  0.7727504151210368  1.0000
  Cl  Cl3       1.0  0.3336963154306959  0.4137458984320788  0.7111320325911187  1.0000
  Zn  Zn1       1.0  0.3687083252959702  0.5227076181362789  0.7312140797494653  1.0000
